vdd vdd 0 DC 5
vin vin 0 AC SINE (0.9 0.005 1k 0 0 0 50)
*vin vin 0 dc 5
.ac dec 100 100 10g
*.dc vin 0 5 .1
*.tran 0 5m
.include "C:\Users\Kanak Pradhan\OneDrive\Desktop\verilog_project\C5_models\C5_models.txt"
*.options post